@<TRIPOS>MOLECULE
*****
 25 0 0 0 0
SMALL
GASTEIGER

@<TRIPOS>ATOM
      1 AU         -3.7734    2.2738    0.2285 Au      1  UNL1        0.0000
      2 AU         -5.7627    4.7318    0.2480 Au      2  UNL2        0.0000
      3 AU         -0.2355    6.0745   -0.3940 Au      3  UNL3        0.0000
      4 AU         -6.7928    1.4417    0.4824 Au      4  UNL4        0.0000
      5 AU         -0.7952    3.0055    0.0013 Au      5  UNL5        0.0000
      6 AU         -4.6877   -0.2979   -1.3453 Au      6  UNL6        0.0000
      7 AU         -1.6384   -0.0969    0.2039 Au      7  UNL7        0.0000
      8 AU         -5.2145    2.9413    2.9258 Au      8  UNL8        0.0000
      9 AU         -1.8679    1.8708    2.7989 Au      9  UNL9        0.0000
     10 AU         -5.5235    2.7147   -2.3778 Au     10  UNL10       0.0000
     11 AU         -2.3988    1.6848   -2.5705 Au     11  UNL11       0.0000
     12 AU          0.6462    0.8268   -1.9001 Au     12  UNL12       0.0000
     13 AU         -1.8973   -1.5343   -2.6075 Au     13  UNL13       0.0000
     14 AU         -0.0892    3.9446   -2.9663 Au     14  UNL14       0.0000
     15 AU         -3.0152    4.7753   -1.6158 Au     15  UNL15       0.0000
     16 AU         -2.7642    4.9172    1.7067 Au     16  UNL16       0.0000
     17 AU         -4.2287   -0.2280    2.0591 Au     17  UNL17       0.0000
     18 AU         -4.0333    0.8945    5.0892 Au     18  UNL18       0.0000
     19 AU         -2.9305    4.0651    4.9083 Au     19  UNL19       0.0000
     20 AU         -7.0086    0.2580    3.5242 Au     20  UNL20       0.0000
     21 AU         -3.4507   -2.8038    0.1962 Au     21  UNL21       0.0000
     22 AU         -6.6720   -1.8136    0.7840 Au     22  UNL22       0.0000
     23 AU         -8.4479    3.6346   -1.2473 Au     23  UNL23       0.0000
     24 AU          2.2440    3.5003   -0.6700 Au     24  UNL24       0.0000
     25 AU          1.1849    0.9898    1.4142 Au     25  UNL25       0.0000
@<TRIPOS>BOND
