@<TRIPOS>MOLECULE
*****
 25 55 0 0 0
SMALL
GASTEIGER

@<TRIPOS>ATOM
      1 PT          8.2063    0.5369   -2.2091 Pt      1  UNL1        0.0000
      2 PT          7.9932    3.0419   -1.7554 Pt      1  UNL1        0.0000
      3 PT         10.7555    0.3383   -1.2672 Pt      1  UNL1        0.0000
      4 PT          8.7728    0.7762    0.4987 Pt      1  UNL1        0.0000
      5 PT          8.8446    3.1990    0.8436 Pt      1  UNL1        0.0000
      6 PT         10.6744    3.1880   -1.1800 Pt      1  UNL1        0.0000
      7 PT         13.3155    0.5996   -0.5510 Pt      1  UNL1        0.0000
      8 PT         11.4070    0.7487    1.3351 Pt      1  UNL1        0.0000
      9 PT         11.5141    3.4222    1.4077 Pt      1  UNL1        0.0000
     10 PT         13.3746    3.3316   -0.5966 Pt      1  UNL1        0.0000
     11 PT         15.9351    0.7393    0.1562 Pt      1  UNL1        0.0000
     12 PT         14.0210    0.8111    2.0893 Pt      1  UNL1        0.0000
     13 PT         14.1407    3.2832    1.9954 Pt      1  UNL1        0.0000
     14 PT         16.0319    3.2902    0.0134 Pt      1  UNL1        0.0000
     15 PT         18.5691    0.7503    0.9395 Pt      1  UNL1        0.0000
     16 PT         16.5698    0.4128    2.7764 Pt      1  UNL1        0.0000
     17 PT         16.8253    3.1649    2.6473 Pt      1  UNL1        0.0000
     18 PT         18.6823    3.4940    0.6210 Pt      1  UNL1        0.0000
     19 PT         21.2167    0.7476    1.7223 Pt      1  UNL1        0.0000
     20 PT         19.1376    0.7588    3.5662 Pt      1  UNL1        0.0000
     21 PT         19.4735    3.3654    3.2812 Pt      1  UNL1        0.0000
     22 PT         21.3190    3.2911    1.2737 Pt      1  UNL1        0.0000
     23 PT         22.0614    0.5758    1.8442 Pt      1  UNL1        0.0000
     24 PT         21.6559    1.2891    4.4269 Pt      1  UNL1        0.0000
     25 PT         22.0586    3.9290    3.7859 Pt      1  UNL1        0.0000
@<TRIPOS>BOND
     1     1     2    1
     2     1     3    1
     3     1     4    1
     4     2     6    1
     5     2     5    1
     6     3     6    1
     7     3     7    1
     8     3     4    1
     9     3     8    1
    10     6    10    1
    11     6     5    1
    12     6     9    1
    13    10     7    1
    14    10    14    1
    15    10     9    1
    16    10    13    1
    17     7    11    1
    18     7     8    1
    19     7    12    1
    20    14    11    1
    21    14    18    1
    22    14    13    1
    23    14    17    1
    24    11    15    1
    25    11    12    1
    26    11    16    1
    27     4     5    1
    28     4     8    1
    29    18    15    1
    30    18    22    1
    31    18    17    1
    32    18    21    1
    33     5     9    1
    34    15    19    1
    35    15    16    1
    36    15    20    1
    37    22    19    1
    38    22    21    1
    39    22    25    1
    40     8     9    1
    41     8    12    1
    42     9    13    1
    43    19    23    1
    44    19    20    1
    45    23    24    1
    46    13    12    1
    47    13    17    1
    48    12    16    1
    49    17    16    1
    50    17    21    1
    51    16    20    1
    52    21    20    1
    53    21    25    1
    54    20    24    1
    55    25    24    1
