@<TRIPOS>MOLECULE
*****
 25 0 0 0 0
SMALL
GASTEIGER

@<TRIPOS>ATOM
      1 AU         -2.6593    0.9449   -1.6264 Au      1  UNL1        0.0000
      2 AU        -10.4177    1.8385   -0.2500 Au      2  UNL2        0.0000
      3 AU         -7.2330    1.9874    0.7825 Au      3  UNL3        0.0000
      4 AU          0.5125    1.6276   -1.1538 Au      4  UNL4        0.0000
      5 AU         -8.5784   -0.7525   -0.4983 Au      5  UNL5        0.0000
      6 AU         -6.5177   -0.8742    2.0469 Au      6  UNL6        0.0000
      7 AU         -3.4699   -2.3264   -2.1228 Au      7  UNL7        0.0000
      8 AU          1.5421   -2.0820    0.6125 Au      8  UNL8        0.0000
      9 AU          3.6887    2.1690   -0.6250 Au      9  UNL9        0.0000
     10 AU          4.4755   -0.6899    0.7698 Au     10  UNL10       0.0000
     11 AU        -11.5503   -1.3475    0.4541 Au     11  UNL11       0.0000
     12 AU         -9.5128    0.2695    2.4635 Au     12  UNL12       0.0000
     13 AU         -3.7701   -2.0757    1.0520 Au     13  UNL13       0.0000
     14 AU         -1.1174   -0.3430    0.8833 Au     14  UNL14       0.0000
     15 AU          1.7843    0.9337    1.7362 Au     15  UNL15       0.0000
     16 AU         -7.8551    1.7587   -2.4003 Au     16  UNL16       0.0000
     17 AU         -5.5595   -0.1622   -1.0417 Au     17  UNL17       0.0000
     18 AU         -4.0022    1.1830    1.4056 Au     18  UNL18       0.0000
     19 AU         -0.3994   -1.2837   -2.1643 Au     19  UNL19       0.0000
     20 AU          2.7487   -0.6438   -2.0056 Au     20  UNL20       0.0000
     21 AU         -9.6989   -3.6682   -1.2088 Au     21  UNL21       0.0000
     22 AU         -8.9900   -2.9390    1.8734 Au     22  UNL22       0.0000
     23 AU         -6.4730   -3.1988   -0.3525 Au     23  UNL23       0.0000
     24 AU         -1.1917   -3.6257   -0.1268 Au     24  UNL24       0.0000
     25 AU          1.5711   -3.8231   -2.0928 Au     25  UNL25       0.0000
@<TRIPOS>BOND
