@<TRIPOS>MOLECULE
*****
 96 105 0 0 0
SMALL
GASTEIGER

@<TRIPOS>ATOM
      1 AU         -9.1486   12.8051   -6.0746 Au      1  UNL1        0.0000
      2 AU         -9.4364   10.3657   -6.3643 Au      1  UNL1        0.0000
      3 AU         -6.8405   11.9714   -5.6080 Au      1  UNL1        0.0000
      4 AU         -8.5914   10.9578   -4.1266 Au      1  UNL1        0.0000
      5 AU         -7.0687   10.1547   -7.2256 Au      1  UNL1        0.0000
      6 AU         -7.3743    8.9250   -4.9374 Au      1  UNL1        0.0000
      7 AU         -6.6923   11.9099   -5.3788 Au      1  UNL1        0.0000
      8 AU         -5.4432   10.1929   -3.9482 Au      1  UNL1        0.0000
      9 AU         -6.3411    9.9933   -6.9583 Au      1  UNL1        0.0000
     10 AU         -4.1125    9.4666   -5.9625 Au      1  UNL1        0.0000
     11 AU         -4.2060    9.1312   -5.8422 Au      1  UNL1        0.0000
     12 AU         -5.0413   10.3646   -3.7810 Au      1  UNL1        0.0000
     13 AU         -2.3021    8.5629   -4.3917 Au      1  UNL1        0.0000
     14 AU         -4.4330    8.0740   -2.9865 Au      1  UNL1        0.0000
     15 AU         -2.6108   10.7776   -3.1873 Au      1  UNL1        0.0000
     16 AU         -3.5806    9.5098   -1.2266 Au      1  UNL1        0.0000
     17 AU         -2.1312    8.4847   -4.0285 Au      1  UNL1        0.0000
     18 AU         -1.7152    7.8440   -1.5731 Au      1  UNL1        0.0000
     19 AU         -2.1461   10.7040   -2.8756 Au      1  UNL1        0.0000
     20 AU         -3.4480    9.5833   -1.0222 Au      1  UNL1        0.0000
     21 AU         -0.1934    9.8080   -1.6777 Au      1  UNL1        0.0000
     22 AU         -1.5590    7.8909   -0.7817 Au      1  UNL1        0.0000
     23 AU         -1.6247   10.8984    0.1448 Au      1  UNL1        0.0000
     24 AU         -0.8652    8.8814    1.4202 Au      1  UNL1        0.0000
     25 AU          0.1197    9.7021   -1.3193 Au      1  UNL1        0.0000
     26 C           1.3221   -0.9526    0.1130 C.2     2  UNL2        0.0000
     27 C           2.5983   -0.5633    0.2387 C.2     2  UNL2        0.0000
     28 C           3.1041    0.4744    1.1803 C.2     2  UNL2        0.0000
     29 C           2.2937    1.1350    2.0363 C.2     2  UNL2        0.0000
     30 O           4.4446    0.7207    1.1315 O.2     2  UNL2        0.0000
     31 C           5.1571    1.5911    1.9381 C.3     2  UNL2        0.0000
     32 C           6.6703    1.5789    1.5854 C.3     2  UNL2        0.0000
     33 C           7.2342    0.1350    1.6923 C.3     2  UNL2        0.0000
     34 C           6.8975    2.1189    0.1458 C.3     2  UNL2        0.0000
     35 C           7.4035    2.5088    2.5900 C.3     2  UNL2        0.0000
     36 O           8.7631    2.5310    2.3409 O.3     2  UNL2        0.0000
     37 C           9.6564    3.2556    3.0594 C.2     2  UNL2        0.0000
     38 O           9.2867    3.9508    3.9968 O.2     2  UNL2        0.0000
     39 C          11.0853    3.1895    2.6895 C.2     2  UNL2        0.0000
     40 C          12.0327    3.8700    3.3434 C.2     2  UNL2        0.0000
     41 O           6.2295    1.3100   -0.8022 O.3     2  UNL2        0.0000
     42 C           6.7803    1.5089   -2.0885 C.3     2  UNL2        0.0000
     43 C           5.9435    0.7639   -3.1643 C.3     2  UNL2        0.0000
     44 C           5.8369   -0.7436   -2.8066 C.3     2  UNL2        0.0000
     45 C           4.5205    1.3819   -3.2660 C.3     2  UNL2        0.0000
     46 O           3.8045    1.2543   -2.0650 O.3     2  UNL2        0.0000
     47 C           6.6556    0.9322   -4.5334 C.3     2  UNL2        0.0000
     48 O           5.9599    0.2794   -5.5339 O.3     2  UNL2        0.0000
     49 C           6.3443    0.2523   -6.8343 C.2     2  UNL2        0.0000
     50 O           7.3627    0.8272   -7.1965 O.2     2  UNL2        0.0000
     51 C           5.5107   -0.4849   -7.8061 C.2     2  UNL2        0.0000
     52 C           5.8153   -0.5633   -9.1059 C.2     2  UNL2        0.0000
     53 O           7.0921   -1.3151   -2.7174 O.3     2  UNL2        0.0000
     54 C           7.3146   -2.6151   -2.4017 C.2     2  UNL2        0.0000
     55 O           6.3791   -3.3724   -2.1784 O.2     2  UNL2        0.0000
     56 C           8.7085   -3.0988   -2.3274 C.2     2  UNL2        0.0000
     57 C           9.0188   -4.3625   -2.0193 C.2     2  UNL2        0.0000
     58 O           7.0617   -0.3655    2.9688 O.3     2  UNL2        0.0000
     59 C           7.4536   -1.6044    3.3576 C.2     2  UNL2        0.0000
     60 O           7.9980   -2.3640    2.5666 O.2     2  UNL2        0.0000
     61 C           7.2100   -2.0206    4.7540 C.2     2  UNL2        0.0000
     62 C           7.5628   -3.2230    5.2210 C.2     2  UNL2        0.0000
     63 H           1.0694   -1.7215   -0.6101 H       2  UNL2        0.0000
     64 H           0.5144   -0.5371    0.7006 H       2  UNL2        0.0000
     65 H           3.3299   -1.0462   -0.4015 H       2  UNL2        0.0000
     66 H           1.2290    0.9535    2.0915 H       2  UNL2        0.0000
     67 H           2.6760    1.8870    2.7167 H       2  UNL2        0.0000
     68 H           5.0232    1.2799    2.9982 H       2  UNL2        0.0000
     69 H           4.7577    2.6233    1.8218 H       2  UNL2        0.0000
     70 H           8.3182    0.1320    1.4401 H       2  UNL2        0.0000
     71 H           6.7161   -0.5314    0.9671 H       2  UNL2        0.0000
     72 H           7.9982    2.1353   -0.0405 H       2  UNL2        0.0000
     73 H           6.5087    3.1595    0.0739 H       2  UNL2        0.0000
     74 H           7.2314    2.1537    3.6309 H       2  UNL2        0.0000
     75 H           6.9983    3.5426    2.5085 H       2  UNL2        0.0000
     76 H          11.3754    2.5617    1.8521 H       2  UNL2        0.0000
     77 H          11.7920    4.5103    4.1865 H       2  UNL2        0.0000
     78 H          13.0692    3.7877    3.0325 H       2  UNL2        0.0000
     79 H           7.8190    1.1051   -2.1046 H       2  UNL2        0.0000
     80 H           6.8074    2.5937   -2.3479 H       2  UNL2        0.0000
     81 H           5.2416   -1.2781   -3.5801 H       2  UNL2        0.0000
     82 H           5.3156   -0.8657   -1.8324 H       2  UNL2        0.0000
     83 H           3.9339    0.8741   -4.0613 H       2  UNL2        0.0000
     84 H           4.5853    2.4537   -3.5713 H       2  UNL2        0.0000
     85 H           3.8503    2.1291   -1.5978 H       2  UNL2        0.0000
     86 H           7.6874    0.5182   -4.4787 H       2  UNL2        0.0000
     87 H           6.7328    2.0138   -4.7861 H       2  UNL2        0.0000
     88 H           4.6146   -0.9827   -7.4476 H       2  UNL2        0.0000
     89 H           6.7003   -0.0826   -9.5113 H       2  UNL2        0.0000
     90 H           5.1700   -1.1176   -9.7797 H       2  UNL2        0.0000
     91 H           9.5120   -2.3972   -2.5310 H       2  UNL2        0.0000
     92 H           8.2507   -5.1000   -1.8074 H       2  UNL2        0.0000
     93 H          10.0590   -4.6687   -1.9772 H       2  UNL2        0.0000
     94 H           6.7244   -1.3198    5.4265 H       2  UNL2        0.0000
     95 H           8.0505   -3.9573    4.5872 H       2  UNL2        0.0000
     96 H           7.3617   -3.4812    6.2557 H       2  UNL2        0.0000
@<TRIPOS>BOND
     1    90    52    1
     2    89    52    1
     3    52    51    2
     4    51    88    1
     5    51    49    1
     6    50    49    2
     7    49    48    1
     8    48    47    1
     9    87    47    1
    10    47    86    1
    11    47    43    1
    12    83    45    1
    13     5     9    1
    14     5     2    1
    15     5     3    1
    16     9    10    1
    17     9     7    1
    18     9     6    1
    19    81    44    1
    20    84    45    1
    21    45    43    1
    22    45    46    1
    23    43    44    1
    24    43    42    1
    25     2     1    1
    26     2     6    1
    27     2     4    1
    28    44    53    1
    29    44    82    1
    30    53    54    1
    31    10    12    1
    32    91    56    1
    33    11    13    1
    34    11     8    1
    35    54    56    1
    36    54    55    2
    37    80    42    1
    38    56    57    2
    39    79    42    1
    40    42    41    1
    41    46    85    1
    42     7     4    1
    43    57    93    1
    44    57    92    1
    45     6     4    1
    46     6     8    1
    47    13    17    1
    48    41    34    1
    49    17    15    1
    50     8    12    1
    51    63    26    1
    52    12    15    1
    53    12    14    1
    54    65    27    1
    55    72    34    1
    56    73    34    1
    57    26    27    2
    58    26    64    1
    59    15    19    1
    60    34    32    1
    61    27    28    1
    62    14    16    1
    63    19    21    1
    64    19    16    1
    65    71    33    1
    66    30    28    1
    67    30    31    1
    68    28    29    2
    69    70    33    1
    70    32    33    1
    71    32    31    1
    72    32    35    1
    73    21    18    1
    74    21    25    1
    75    33    58    1
    76    18    20    1
    77    18    22    1
    78    69    31    1
    79    76    39    1
    80    31    68    1
    81    25    22    1
    82    25    23    1
    83    25    24    1
    84    29    66    1
    85    29    67    1
    86    20    23    1
    87    36    35    1
    88    36    37    1
    89    75    35    1
    90    22    23    1
    91    22    24    1
    92    60    59    2
    93    35    74    1
    94    39    37    1
    95    39    40    2
    96    58    59    1
    97    78    40    1
    98    37    38    2
    99    40    77    1
   100    59    61    1
   101    23    24    1
   102    95    62    1
   103    61    62    2
   104    61    94    1
   105    62    96    1
