@<TRIPOS>MOLECULE
*****
 25 58 0 0 0
SMALL
GASTEIGER

@<TRIPOS>ATOM
      1 CU         10.8723    3.9588    7.3103 Cu      1  UNL1        0.0000
      2 CU         12.9553    2.7381    8.3254 Cu      1  UNL1        0.0000
      3 CU         11.6420    3.6269    4.7992 Cu      1  UNL1        0.0000
      4 CU         10.2462    1.7213    6.0947 Cu      1  UNL1        0.0000
      5 CU         12.3189    0.6178    7.1206 Cu      1  UNL1        0.0000
      6 CU         13.8208    2.5002    5.9118 Cu      1  UNL1        0.0000
      7 CU         13.0752    3.1030    2.8156 Cu      1  UNL1        0.0000
      8 CU         11.2218    1.4487    3.6381 Cu      1  UNL1        0.0000
      9 CU         13.2334    0.3084    4.7189 Cu      1  UNL1        0.0000
     10 CU         15.0681    1.8718    3.8420 Cu      1  UNL1        0.0000
     11 CU         13.4349    3.0764    0.3188 Cu      1  UNL1        0.0000
     12 CU         12.3201    1.0116    1.3795 Cu      1  UNL1        0.0000
     13 CU         14.4052   -0.1242    2.3375 Cu      1  UNL1        0.0000
     14 CU         15.6704    1.9268    1.2810 Cu      1  UNL1        0.0000
     15 CU         15.0332    2.7562   -1.5891 Cu      1  UNL1        0.0000
     16 CU         13.3522    0.8553   -0.9536 Cu      1  UNL1        0.0000
     17 CU         15.2904   -0.4237    0.0631 Cu      1  UNL1        0.0000
     18 CU         16.9983    1.3795   -0.9671 Cu      1  UNL1        0.0000
     19 CU         15.3815    3.4519   -3.8982 Cu      1  UNL1        0.0000
     20 CU         14.3662    1.0171   -3.4350 Cu      1  UNL1        0.0000
     21 CU         16.7558   -0.0467   -3.1567 Cu      1  UNL1        0.0000
     22 CU         17.8450    2.3579   -3.3467 Cu      1  UNL1        0.0000
     23 CU         17.0222    3.2198   -5.5992 Cu      1  UNL1        0.0000
     24 CU         14.9549    1.7937   -5.8371 Cu      1  UNL1        0.0000
     25 CU         17.3873    0.7591   -5.4833 Cu      1  UNL1        0.0000
@<TRIPOS>BOND
     1    24    23    1
     2    24    25    1
     3    24    19    1
     4    24    20    1
     5    23    25    1
     6    23    19    1
     7    23    22    1
     8    25    22    1
     9    25    21    1
    10    19    20    1
    11    19    22    1
    12    19    15    1
    13    20    21    1
    14    20    15    1
    15    20    16    1
    16    22    21    1
    17    22    18    1
    18    21    18    1
    19    15    18    1
    20    15    16    1
    21    15    11    1
    22    15    14    1
    23    18    17    1
    24    18    14    1
    25    16    17    1
    26    16    11    1
    27    16    12    1
    28    17    14    1
    29    17    13    1
    30    11    14    1
    31    11    12    1
    32    11     7    1
    33    14    13    1
    34    14    10    1
    35    12    13    1
    36    12     7    1
    37    12     8    1
    38    13    10    1
    39    13     9    1
    40     7     8    1
    41     7    10    1
    42     7     3    1
    43     8     9    1
    44     8     3    1
    45     8     4    1
    46    10     9    1
    47    10     6    1
    48     9     6    1
    49     9     5    1
    50     3     6    1
    51     3     4    1
    52     3     1    1
    53     6     5    1
    54     6     2    1
    55     4     5    1
    56     4     1    1
    57     5     2    1
    58     1     2    1
