@<TRIPOS>MOLECULE
*****
 25 19 0 0 0
SMALL
GASTEIGER

@<TRIPOS>ATOM
      1 AG         21.5307    0.2194   -5.6281 Ag      1  UNL1        0.0000
      2 AG         21.5584   -0.6028   -2.7151 Ag      1  UNL1        0.0000
      3 AG         21.3254   -0.4091   -2.8048 Ag      3  UNL3        0.0000
      4 AG         21.0861   -1.5427   -0.0655 Ag      2  UNL2        0.0000
      5 AG         20.8395   -1.1356   -0.2014 Ag      2  UNL2        0.0000
      6 AG         20.3020   -2.0922    2.5367 Ag      3  UNL3        0.0000
      7 AG         20.0706   -1.7118    2.6004 Ag      3  UNL3        0.0000
      8 AG         19.4974   -2.2423    5.2826 Ag      4  UNL4        0.0000
      9 AG         19.1530   -1.9027    5.5472 Ag      4  UNL4        0.0000
     10 AG         18.9072   -2.0594    8.1069 Ag      4  UNL4        0.0000
     11 AG         19.0090   -2.0202    8.2926 Ag      5  UNL5        0.0000
     12 AG         21.1541    0.5811   -8.2887 Ag      6  UNL6        0.0000
     13 AG         21.2595    0.2062   -3.2393 Ag      3  UNL3        0.0000
     14 AG         20.5589    0.3374   -4.3422 Ag      1  UNL1        0.0000
     15 AG         20.5984   -0.0510   -0.2087 Ag      2  UNL2        0.0000
     16 AG         20.4169    0.3242   -0.1490 Ag      2  UNL2        0.0000
     17 AG         19.7822   -0.6013    2.4934 Ag      3  UNL3        0.0000
     18 AG         19.5241   -0.3737    2.4565 Ag      3  UNL3        0.0000
     19 AG         19.1832   -1.3599    5.1814 Ag      4  UNL4        0.0000
     20 AG         19.3137   -0.4118   -0.4114 Ag      2  UNL2        0.0000
     21 AG         19.1356   -1.4584    2.1062 Ag      3  UNL3        0.0000
     22 AG         18.8448   -0.8059    2.7243 Ag      3  UNL3        0.0000
     23 AG         18.9252   -1.5260    6.0267 Ag      4  UNL4        0.0000
     24 AG         18.6892   -1.1662   -0.3285 Ag      2  UNL2        0.0000
     25 AG         19.0344   -1.8204    3.8645 Ag      4  UNL4        0.0000
@<TRIPOS>BOND
     1     1    14    3
     2    13     3    3
     3    20    24    2
     4    20    15    1
     5    15     5    1
     6    15    16    1
     7     5     4    3
     8    21    17    1
     9    21     7    1
    10    21    22    1
    11    18    22    1
    12    17     7    1
    13     6     7    1
    14    25    19    1
    15    19     9    1
    16    19    23    1
    17     8     9    2
    18     9    23    1
    19    23    10    1
