@<TRIPOS>MOLECULE
*****
 25 35 0 0 0
SMALL
GASTEIGER

@<TRIPOS>ATOM
      1 AU         11.0504    3.9397   -1.4600 Au      1  UNL1        0.0000
      2 AU         10.7626    1.5003   -1.7497 Au      1  UNL1        0.0000
      3 AU         13.3585    3.1060   -0.9934 Au      1  UNL1        0.0000
      4 AU         11.6076    2.0924    0.4880 Au      1  UNL1        0.0000
      5 AU         13.1303    1.2893   -2.6110 Au      1  UNL1        0.0000
      6 AU         12.8247    0.0596   -0.3228 Au      1  UNL1        0.0000
      7 AU         13.5067    3.0445   -0.7642 Au      1  UNL1        0.0000
      8 AU         14.7558    1.3275    0.6664 Au      1  UNL1        0.0000
      9 AU         13.8579    1.1279   -2.3437 Au      1  UNL1        0.0000
     10 AU         16.0865    0.6012   -1.3479 Au      1  UNL1        0.0000
     11 AU         15.9930    0.2658   -1.2276 Au      1  UNL1        0.0000
     12 AU         15.1577    1.4992    0.8336 Au      1  UNL1        0.0000
     13 AU         17.8969   -0.3025    0.2229 Au      1  UNL1        0.0000
     14 AU         15.7660   -0.7914    1.6281 Au      1  UNL1        0.0000
     15 AU         17.5882    1.9122    1.4273 Au      1  UNL1        0.0000
     16 AU         16.6184    0.6444    3.3880 Au      1  UNL1        0.0000
     17 AU         18.0678   -0.3807    0.5861 Au      1  UNL1        0.0000
     18 AU         18.4838   -1.0214    3.0415 Au      1  UNL1        0.0000
     19 AU         18.0529    1.8386    1.7390 Au      1  UNL1        0.0000
     20 AU         16.7510    0.7179    3.5924 Au      1  UNL1        0.0000
     21 AU         20.0056    0.9426    2.9369 Au      1  UNL1        0.0000
     22 AU         18.6400   -0.9745    3.8329 Au      1  UNL1        0.0000
     23 AU         18.5743    2.0330    4.7594 Au      1  UNL1        0.0000
     24 AU         19.3338    0.0160    6.0348 Au      1  UNL1        0.0000
     25 AU         20.3187    0.8367    3.2953 Au      1  UNL1        0.0000
@<TRIPOS>BOND
     1     5     9    1
     2     5     2    1
     3     5     3    1
     4     9    10    1
     5     9     7    1
     6     9     6    1
     7     2     1    1
     8     2     6    1
     9     2     4    1
    10    10    12    1
    11    11    13    1
    12    11     8    1
    13     7     4    1
    14     6     4    1
    15     6     8    1
    16    13    17    1
    17    17    15    1
    18     8    12    1
    19    12    15    1
    20    12    14    1
    21    15    19    1
    22    14    16    1
    23    19    21    1
    24    19    16    1
    25    21    18    1
    26    21    25    1
    27    18    20    1
    28    18    22    1
    29    25    22    1
    30    25    23    1
    31    25    24    1
    32    20    23    1
    33    22    23    1
    34    22    24    1
    35    23    24    1
