@<TRIPOS>MOLECULE
*****
 96 125 0 0 0
SMALL
GASTEIGER

@<TRIPOS>ATOM
      1 PT          3.4133    9.9226    4.0076 Pt      1  UNL1        0.0000
      2 PT          3.2002   12.4276    4.4614 Pt      1  UNL1        0.0000
      3 PT          5.9625    9.7240    4.9495 Pt      1  UNL1        0.0000
      4 PT          3.9798   10.1619    6.7155 Pt      1  UNL1        0.0000
      5 PT          4.0516   12.5847    7.0603 Pt      1  UNL1        0.0000
      6 PT          5.8814   12.5737    5.0367 Pt      1  UNL1        0.0000
      7 PT          8.5225    9.9853    5.6657 Pt      1  UNL1        0.0000
      8 PT          6.6140   10.1344    7.5518 Pt      1  UNL1        0.0000
      9 PT          6.7211   12.8079    7.6244 Pt      1  UNL1        0.0000
     10 PT          8.5816   12.7173    5.6201 Pt      1  UNL1        0.0000
     11 PT         11.1421   10.1250    6.3730 Pt      1  UNL1        0.0000
     12 PT          9.2280   10.1968    8.3060 Pt      1  UNL1        0.0000
     13 PT          9.3477   12.6689    8.2121 Pt      1  UNL1        0.0000
     14 PT         11.2389   12.6759    6.2301 Pt      1  UNL1        0.0000
     15 PT         13.7761   10.1360    7.1562 Pt      1  UNL1        0.0000
     16 PT         11.7768    9.7985    8.9931 Pt      1  UNL1        0.0000
     17 PT         12.0323   12.5506    8.8641 Pt      1  UNL1        0.0000
     18 PT         13.8893   12.8797    6.8377 Pt      1  UNL1        0.0000
     19 PT         16.4237   10.1332    7.9390 Pt      1  UNL1        0.0000
     20 PT         14.3446   10.1445    9.7829 Pt      1  UNL1        0.0000
     21 PT         14.6805   12.7511    9.4979 Pt      1  UNL1        0.0000
     22 PT         16.5260   12.6768    7.4904 Pt      1  UNL1        0.0000
     23 PT         17.2684    9.9615    8.0609 Pt      1  UNL1        0.0000
     24 PT         16.8629   10.6748   10.6436 Pt      1  UNL1        0.0000
     25 PT         17.2656   13.3147   10.0027 Pt      1  UNL1        0.0000
     26 C           1.3221   -0.9526    0.1130 C.2     2  UNL2        0.0000
     27 C           2.5983   -0.5633    0.2387 C.2     2  UNL2        0.0000
     28 C           3.1041    0.4744    1.1803 C.2     2  UNL2        0.0000
     29 C           2.2937    1.1350    2.0363 C.2     2  UNL2        0.0000
     30 O           4.4446    0.7207    1.1315 O.2     2  UNL2        0.0000
     31 C           5.1571    1.5911    1.9381 C.3     2  UNL2        0.0000
     32 C           6.6703    1.5789    1.5854 C.3     2  UNL2        0.0000
     33 C           7.2342    0.1350    1.6923 C.3     2  UNL2        0.0000
     34 C           6.8975    2.1189    0.1458 C.3     2  UNL2        0.0000
     35 C           7.4035    2.5088    2.5900 C.3     2  UNL2        0.0000
     36 O           8.7631    2.5310    2.3409 O.3     2  UNL2        0.0000
     37 C           9.6564    3.2556    3.0594 C.2     2  UNL2        0.0000
     38 O           9.2867    3.9508    3.9968 O.2     2  UNL2        0.0000
     39 C          11.0853    3.1895    2.6895 C.2     2  UNL2        0.0000
     40 C          12.0327    3.8700    3.3434 C.2     2  UNL2        0.0000
     41 O           6.2295    1.3100   -0.8022 O.3     2  UNL2        0.0000
     42 C           6.7803    1.5089   -2.0885 C.3     2  UNL2        0.0000
     43 C           5.9435    0.7639   -3.1643 C.3     2  UNL2        0.0000
     44 C           5.8369   -0.7436   -2.8066 C.3     2  UNL2        0.0000
     45 C           4.5205    1.3819   -3.2660 C.3     2  UNL2        0.0000
     46 O           3.8045    1.2543   -2.0650 O.3     2  UNL2        0.0000
     47 C           6.6556    0.9322   -4.5334 C.3     2  UNL2        0.0000
     48 O           5.9599    0.2794   -5.5339 O.3     2  UNL2        0.0000
     49 C           6.3443    0.2523   -6.8343 C.2     2  UNL2        0.0000
     50 O           7.3627    0.8272   -7.1965 O.2     2  UNL2        0.0000
     51 C           5.5107   -0.4849   -7.8061 C.2     2  UNL2        0.0000
     52 C           5.8153   -0.5633   -9.1059 C.2     2  UNL2        0.0000
     53 O           7.0921   -1.3151   -2.7174 O.3     2  UNL2        0.0000
     54 C           7.3146   -2.6151   -2.4017 C.2     2  UNL2        0.0000
     55 O           6.3791   -3.3724   -2.1784 O.2     2  UNL2        0.0000
     56 C           8.7085   -3.0988   -2.3274 C.2     2  UNL2        0.0000
     57 C           9.0188   -4.3625   -2.0193 C.2     2  UNL2        0.0000
     58 O           7.0617   -0.3655    2.9688 O.3     2  UNL2        0.0000
     59 C           7.4536   -1.6044    3.3576 C.2     2  UNL2        0.0000
     60 O           7.9980   -2.3640    2.5666 O.2     2  UNL2        0.0000
     61 C           7.2100   -2.0206    4.7540 C.2     2  UNL2        0.0000
     62 C           7.5628   -3.2230    5.2210 C.2     2  UNL2        0.0000
     63 H           1.0694   -1.7215   -0.6101 H       2  UNL2        0.0000
     64 H           0.5144   -0.5371    0.7006 H       2  UNL2        0.0000
     65 H           3.3299   -1.0462   -0.4015 H       2  UNL2        0.0000
     66 H           1.2290    0.9535    2.0915 H       2  UNL2        0.0000
     67 H           2.6760    1.8870    2.7167 H       2  UNL2        0.0000
     68 H           5.0232    1.2799    2.9982 H       2  UNL2        0.0000
     69 H           4.7577    2.6233    1.8218 H       2  UNL2        0.0000
     70 H           8.3182    0.1320    1.4401 H       2  UNL2        0.0000
     71 H           6.7161   -0.5314    0.9671 H       2  UNL2        0.0000
     72 H           7.9982    2.1353   -0.0405 H       2  UNL2        0.0000
     73 H           6.5087    3.1595    0.0739 H       2  UNL2        0.0000
     74 H           7.2314    2.1537    3.6309 H       2  UNL2        0.0000
     75 H           6.9983    3.5426    2.5085 H       2  UNL2        0.0000
     76 H          11.3754    2.5617    1.8521 H       2  UNL2        0.0000
     77 H          11.7920    4.5103    4.1865 H       2  UNL2        0.0000
     78 H          13.0692    3.7877    3.0325 H       2  UNL2        0.0000
     79 H           7.8190    1.1051   -2.1046 H       2  UNL2        0.0000
     80 H           6.8074    2.5937   -2.3479 H       2  UNL2        0.0000
     81 H           5.2416   -1.2781   -3.5801 H       2  UNL2        0.0000
     82 H           5.3156   -0.8657   -1.8324 H       2  UNL2        0.0000
     83 H           3.9339    0.8741   -4.0613 H       2  UNL2        0.0000
     84 H           4.5853    2.4537   -3.5713 H       2  UNL2        0.0000
     85 H           3.8503    2.1291   -1.5978 H       2  UNL2        0.0000
     86 H           7.6874    0.5182   -4.4787 H       2  UNL2        0.0000
     87 H           6.7328    2.0138   -4.7861 H       2  UNL2        0.0000
     88 H           4.6146   -0.9827   -7.4476 H       2  UNL2        0.0000
     89 H           6.7003   -0.0826   -9.5113 H       2  UNL2        0.0000
     90 H           5.1700   -1.1176   -9.7797 H       2  UNL2        0.0000
     91 H           9.5120   -2.3972   -2.5310 H       2  UNL2        0.0000
     92 H           8.2507   -5.1000   -1.8074 H       2  UNL2        0.0000
     93 H          10.0590   -4.6687   -1.9772 H       2  UNL2        0.0000
     94 H           6.7244   -1.3198    5.4265 H       2  UNL2        0.0000
     95 H           8.0505   -3.9573    4.5872 H       2  UNL2        0.0000
     96 H           7.3617   -3.4812    6.2557 H       2  UNL2        0.0000
@<TRIPOS>BOND
     1    90    52    1
     2    89    52    1
     3    52    51    2
     4    51    88    1
     5    51    49    1
     6    50    49    2
     7    49    48    1
     8    48    47    1
     9    87    47    1
    10    47    86    1
    11    47    43    1
    12    83    45    1
    13    81    44    1
    14    84    45    1
    15    45    43    1
    16    45    46    1
    17    43    44    1
    18    43    42    1
    19    44    53    1
    20    44    82    1
    21    53    54    1
    22    91    56    1
    23    54    56    1
    24    54    55    2
    25    80    42    1
    26    56    57    2
    27    79    42    1
    28    42    41    1
    29    46    85    1
    30    57    93    1
    31    57    92    1
    32    41    34    1
    33    63    26    1
    34    65    27    1
    35    72    34    1
    36    73    34    1
    37    26    27    2
    38    26    64    1
    39    34    32    1
    40    27    28    1
    41    71    33    1
    42    30    28    1
    43    30    31    1
    44    28    29    2
    45    70    33    1
    46    32    33    1
    47    32    31    1
    48    32    35    1
    49    33    58    1
    50    69    31    1
    51    76    39    1
    52    31    68    1
    53    29    66    1
    54    29    67    1
    55    36    35    1
    56    36    37    1
    57    75    35    1
    58    60    59    2
    59    35    74    1
    60    39    37    1
    61    39    40    2
    62    58    59    1
    63    78    40    1
    64    37    38    2
    65    40    77    1
    66    59    61    1
    67     1     2    1
    68     1     3    1
    69     1     4    1
    70     2     6    1
    71     2     5    1
    72    95    62    1
    73    61    62    2
    74    61    94    1
    75     3     6    1
    76     3     7    1
    77     3     4    1
    78     3     8    1
    79     6    10    1
    80     6     5    1
    81     6     9    1
    82    62    96    1
    83    10     7    1
    84    10    14    1
    85    10     9    1
    86    10    13    1
    87     7    11    1
    88     7     8    1
    89     7    12    1
    90    14    11    1
    91    14    18    1
    92    14    13    1
    93    14    17    1
    94    11    15    1
    95    11    12    1
    96    11    16    1
    97     4     5    1
    98     4     8    1
    99    18    15    1
   100    18    22    1
   101    18    17    1
   102    18    21    1
   103     5     9    1
   104    15    19    1
   105    15    16    1
   106    15    20    1
   107    22    19    1
   108    22    21    1
   109    22    25    1
   110     8     9    1
   111     8    12    1
   112     9    13    1
   113    19    23    1
   114    19    20    1
   115    23    24    1
   116    13    12    1
   117    13    17    1
   118    12    16    1
   119    17    16    1
   120    17    21    1
   121    16    20    1
   122    21    20    1
   123    21    25    1
   124    20    24    1
   125    25    24    1
