@<TRIPOS>MOLECULE
*****
 96 89 0 0 0
SMALL
GASTEIGER

@<TRIPOS>ATOM
      1 C          22.3501    5.4154    5.3317 C.2     1  UNL1        0.0000
      2 C          23.6265    5.8041    5.4575 C.2     1  UNL1        0.0000
      3 C          24.1336    6.8372    6.4034 C.2     1  UNL1        0.0000
      4 C          23.3243    7.4937    7.2637 C.2     1  UNL1        0.0000
      5 O          25.4740    7.0838    6.3540 O.2     1  UNL1        0.0000
      6 C          26.1876    7.9503    7.1638 C.3     1  UNL1        0.0000
      7 C          27.7003    7.9398    6.8090 C.3     1  UNL1        0.0000
      8 C          28.2644    6.4954    6.9081 C.3     1  UNL1        0.0000
      9 C          27.9256    8.4867    5.3717 C.3     1  UNL1        0.0000
     10 C          28.4349    8.8649    7.8170 C.3     1  UNL1        0.0000
     11 O          29.7942    8.8883    7.5662 O.3     1  UNL1        0.0000
     12 C          30.6884    9.6094    8.2869 C.2     1  UNL1        0.0000
     13 O          30.3200   10.3001    9.2282 O.2     1  UNL1        0.0000
     14 C          32.1168    9.5451    7.9148 C.2     1  UNL1        0.0000
     15 C          33.0651   10.2224    8.5706 C.2     1  UNL1        0.0000
     16 O          27.2563    7.6824    4.4207 O.3     1  UNL1        0.0000
     17 C          27.8053    7.8875    3.1346 C.3     1  UNL1        0.0000
     18 C          26.9670    7.1477    2.0564 C.3     1  UNL1        0.0000
     19 C          26.8609    5.6384    2.4070 C.3     1  UNL1        0.0000
     20 C          25.5439    7.7661    1.9596 C.3     1  UNL1        0.0000
     21 O          24.8296    7.6328    3.1610 O.3     1  UNL1        0.0000
     22 C          27.6773    7.3225    0.6871 C.3     1  UNL1        0.0000
     23 O          26.9802    6.6746   -0.3155 O.3     1  UNL1        0.0000
     24 C          27.3628    6.6537   -1.6166 C.2     1  UNL1        0.0000
     25 O          28.3807    7.2304   -1.9774 O.2     1  UNL1        0.0000
     26 C          26.5279    5.9212   -2.5908 C.2     1  UNL1        0.0000
     27 C          26.8307    5.8490   -3.8913 C.2     1  UNL1        0.0000
     28 O          28.1163    5.0665    2.4917 O.3     1  UNL1        0.0000
     29 C          28.3392    3.7650    2.8009 C.2     1  UNL1        0.0000
     30 O          27.4040    3.0067    3.0218 O.2     1  UNL1        0.0000
     31 C          29.7332    3.2810    2.8709 C.2     1  UNL1        0.0000
     32 C          30.0439    2.0158    3.1725 C.2     1  UNL1        0.0000
     33 O          28.0936    5.9888    8.1825 O.3     1  UNL1        0.0000
     34 C          28.4860    4.7480    8.5648 C.2     1  UNL1        0.0000
     35 O          29.0294    3.9922    7.7694 O.2     1  UNL1        0.0000
     36 C          28.2443    4.3251    9.9595 C.2     1  UNL1        0.0000
     37 C          28.5978    3.1205   10.4202 C.2     1  UNL1        0.0000
     38 H          22.0964    4.6500    4.6053 H       1  UNL1        0.0000
     39 H          21.5432    5.8281    5.9224 H       1  UNL1        0.0000
     40 H          24.3572    5.3243    4.8140 H       1  UNL1        0.0000
     41 H          22.2597    7.3120    7.3195 H       1  UNL1        0.0000
     42 H          23.7076    8.2424    7.9472 H       1  UNL1        0.0000
     43 H          26.0552    7.6340    8.2225 H       1  UNL1        0.0000
     44 H          25.7881    8.9830    7.0530 H       1  UNL1        0.0000
     45 H          29.3480    6.4936    6.6545 H       1  UNL1        0.0000
     46 H          27.7453    5.8325    6.1805 H       1  UNL1        0.0000
     47 H          29.0260    8.5040    5.1839 H       1  UNL1        0.0000
     48 H          27.5367    9.5276    5.3053 H       1  UNL1        0.0000
     49 H          28.2642    8.5048    8.8564 H       1  UNL1        0.0000
     50 H          28.0296    9.8990    7.7410 H       1  UNL1        0.0000
     51 H          32.4058    8.9213    7.0740 H       1  UNL1        0.0000
     52 H          32.8256   10.8587    9.4171 H       1  UNL1        0.0000
     53 H          34.1012   10.1416    8.2579 H       1  UNL1        0.0000
     54 H          28.8440    7.4838    3.1152 H       1  UNL1        0.0000
     55 H          27.8321    8.9735    2.8804 H       1  UNL1        0.0000
     56 H          26.2646    5.1077    1.6317 H       1  UNL1        0.0000
     57 H          26.3410    5.5117    3.3813 H       1  UNL1        0.0000
     58 H          24.9562    7.2622    1.1627 H       1  UNL1        0.0000
     59 H          25.6083    8.8394    1.6594 H       1  UNL1        0.0000
     60 H          24.8760    8.5053    3.6323 H       1  UNL1        0.0000
     61 H          28.7092    6.9083    0.7384 H       1  UNL1        0.0000
     62 H          27.7541    8.4053    0.4395 H       1  UNL1        0.0000
     63 H          25.6323    5.4217   -2.2334 H       1  UNL1        0.0000
     64 H          27.7152    6.3317   -4.2956 H       1  UNL1        0.0000
     65 H          26.1845    5.2980   -4.5669 H       1  UNL1        0.0000
     66 H          30.5364    3.9836    2.6696 H       1  UNL1        0.0000
     67 H          29.2761    1.2773    3.3819 H       1  UNL1        0.0000
     68 H          31.0841    1.7094    3.2117 H       1  UNL1        0.0000
     69 H          27.7597    5.0227   10.6360 H       1  UNL1        0.0000
     70 H          29.0846    2.3892    9.7822 H       1  UNL1        0.0000
     71 H          28.3981    2.8573   11.4539 H       1  UNL1        0.0000
     72 AG         21.5307    0.2194   -5.6281 Ag      1  UNL1        0.0000
     73 AG         21.5584   -0.6028   -2.7151 Ag      2  UNL2        0.0000
     74 AG         21.3254   -0.4091   -2.8048 Ag      3  UNL3        0.0000
     75 AG         21.0861   -1.5427   -0.0655 Ag      3  UNL3        0.0000
     76 AG         20.8395   -1.1356   -0.2014 Ag      3  UNL3        0.0000
     77 AG         20.3020   -2.0922    2.5367 Ag      4  UNL4        0.0000
     78 AG         20.0706   -1.7118    2.6004 Ag      4  UNL4        0.0000
     79 AG         19.4974   -2.2423    5.2826 Ag      5  UNL5        0.0000
     80 AG         19.1530   -1.9027    5.5472 Ag      5  UNL5        0.0000
     81 AG         18.9072   -2.0594    8.1069 Ag      5  UNL5        0.0000
     82 AG         19.0090   -2.0202    8.2926 Ag      6  UNL6        0.0000
     83 AG         21.1541    0.5811   -8.2887 Ag      7  UNL7        0.0000
     84 AG         21.2595    0.2062   -3.2393 Ag      3  UNL3        0.0000
     85 AG         20.5589    0.3374   -4.3422 Ag      1  UNL1        0.0000
     86 AG         20.5984   -0.0510   -0.2087 Ag      3  UNL3        0.0000
     87 AG         20.4169    0.3242   -0.1490 Ag      3  UNL3        0.0000
     88 AG         19.7822   -0.6013    2.4934 Ag      4  UNL4        0.0000
     89 AG         19.5241   -0.3737    2.4565 Ag      4  UNL4        0.0000
     90 AG         19.1832   -1.3599    5.1814 Ag      5  UNL5        0.0000
     91 AG         19.3137   -0.4118   -0.4114 Ag      3  UNL3        0.0000
     92 AG         19.1356   -1.4584    2.1062 Ag      4  UNL4        0.0000
     93 AG         18.8448   -0.8059    2.7243 Ag      4  UNL4        0.0000
     94 AG         18.9252   -1.5260    6.0267 Ag      5  UNL5        0.0000
     95 AG         18.6892   -1.1662   -0.3285 Ag      3  UNL3        0.0000
     96 AG         19.0344   -1.8204    3.8645 Ag      5  UNL5        0.0000
@<TRIPOS>BOND
     1    72    85    3
     2    65    27    1
     3    64    27    1
     4    27    26    2
     5    84    74    3
     6    26    63    1
     7    26    24    1
     8    25    24    2
     9    24    23    1
    10    91    95    2
    11    91    86    1
    12    23    22    1
    13    86    76    1
    14    86    87    1
    15    76    75    3
    16    62    22    1
    17    22    61    1
    18    22    18    1
    19    58    20    1
    20    56    19    1
    21    59    20    1
    22    20    18    1
    23    20    21    1
    24    18    19    1
    25    18    17    1
    26    92    88    1
    27    92    78    1
    28    92    93    1
    29    19    28    1
    30    19    57    1
    31    89    93    1
    32    28    29    1
    33    88    78    1
    34    77    78    1
    35    66    31    1
    36    29    31    1
    37    29    30    2
    38    31    32    2
    39    55    17    1
    40    54    17    1
    41    17    16    1
    42    21    60    1
    43    32    68    1
    44    32    67    1
    45    96    90    1
    46    16     9    1
    47    38     1    1
    48    40     2    1
    49    90    80    1
    50    90    94    1
    51    47     9    1
    52    79    80    2
    53    48     9    1
    54     1     2    2
    55     1    39    1
    56     9     7    1
    57     2     3    1
    58    80    94    1
    59    94    81    1
    60    46     8    1
    61     5     3    1
    62     5     6    1
    63     3     4    2
    64    45     8    1
    65     7     8    1
    66     7     6    1
    67     7    10    1
    68     8    33    1
    69    44     6    1
    70    51    14    1
    71     6    43    1
    72     4    41    1
    73     4    42    1
    74    11    10    1
    75    11    12    1
    76    50    10    1
    77    35    34    2
    78    10    49    1
    79    14    12    1
    80    14    15    2
    81    33    34    1
    82    53    15    1
    83    12    13    2
    84    34    36    1
    85    15    52    1
    86    70    37    1
    87    36    37    2
    88    36    69    1
    89    37    71    1
