@<TRIPOS>MOLECULE
generated by VMD
   96    0    1    0    0
SMALL
NO_CHARGES
****
Energy = 0

@<TRIPOS>ATOM
      1  1         -9.9639   20.1716   -4.0553    1    0  UNK        0.000000
      2  1         -9.2324   20.3199   -6.5931    1    0  UNK        0.000000
      3  1         -5.2939   19.7113   -5.3082    1    0  UNK        0.000000
      4  1         -8.6059   21.0872   -8.8578    1    0  UNK        0.000000
      5  1         -6.7137   20.6065   -7.0924    1    0  UNK        0.000000
      6  1         -6.7794   20.5715   -7.1333    1    0  UNK        0.000000
      7  1         -8.3598   18.9736  -10.1962    1    0  UNK        0.000000
      8  1         -5.5251   22.1956   -8.5807    1    0  UNK        0.000000
      9  1         -6.4109   18.6576   -8.6656    1    0  UNK        0.000000
     10  1         -4.5180   19.5214  -10.1187    1    0  UNK        0.000000
     11  1         -4.3863   22.7789   -6.4596    1    0  UNK        0.000000
     12  1         -3.3233   20.9463   -8.4808    1    0  UNK        0.000000
     13  1         -2.8786   24.1863   -8.0103    1    0  UNK        0.000000
     14  1         -3.7243   19.7211  -10.6777    1    0  UNK        0.000000
     15  1         -3.9994   22.7566  -10.0628    1    0  UNK        0.000000
     16  1         -1.4826   20.9341  -10.5213    1    0  UNK        0.000000
     17  1         -2.4813   21.7494   -8.4566    1    0  UNK        0.000000
     18  1         -1.8218   18.7180  -15.6991    1    0  UNK        0.000000
     19  1         -3.1066   21.9166  -12.2781    1    0  UNK        0.000000
     20  1         -1.3178   20.5741  -14.0701    1    0  UNK        0.000000
     21  1         -2.1247   20.7381  -14.2156    1    0  UNK        0.000000
     22  1         -1.9868   17.2771  -13.5716    1    0  UNK        0.000000
     23  1         -0.2611   18.4775  -14.9546    1    0  UNK        0.000000
     24  1         -2.3756   19.6206  -14.5092    1    0  UNK        0.000000
     25  1         -0.6879   19.3539  -12.6782    1    0  UNK        0.000000
     26  2        -31.2130  -69.3747   52.8034    2    0  UNK        0.000000
     27  2        -29.9463  -68.7453   52.8078    2    0  UNK        0.000000
     28  2        -29.2186  -68.2745   51.6799    2    0  UNK        0.000000
     29  2        -29.7415  -68.0972   50.4459    2    0  UNK        0.000000
     30  3        -27.8652  -67.8846   51.8171    3    0  UNK        0.000000
     31  4        -27.7408  -66.5090   52.1782    4    0  UNK        0.000000
     32  4        -26.3689  -65.9974   51.7627    4    0  UNK        0.000000
     33  4        -25.2825  -66.8068   52.4875    4    0  UNK        0.000000
     34  4        -26.2156  -66.0589   50.2043    4    0  UNK        0.000000
     35  4        -26.3798  -64.4847   52.1639    4    0  UNK        0.000000
     36  3        -25.0465  -63.9024   51.9140    3    0  UNK        0.000000
     37  2        -25.1666  -62.5006   52.1397    2    0  UNK        0.000000
     38  5        -24.9364  -61.9494   53.4026    5    0  UNK        0.000000
     39  2        -25.5680  -61.7050   51.0815    2    0  UNK        0.000000
     40  2        -25.7663  -60.3684   51.0175    2    0  UNK        0.000000
     41  3        -26.1971  -67.4752   49.7322    3    0  UNK        0.000000
     42  4        -25.7652  -67.5882   48.3395    4    0  UNK        0.000000
     43  4        -25.3592  -69.1065   48.0717    4    0  UNK        0.000000
     44  4        -24.0189  -69.4725   48.8564    4    0  UNK        0.000000
     45  4        -26.5172  -69.9975   48.6637    4    0  UNK        0.000000
     46  3        -26.7120  -69.8908   50.1232    3    0  UNK        0.000000
     47  4        -25.2222  -69.2823   46.5738    4    0  UNK        0.000000
     48  3        -24.5031  -70.4484   46.2879    3    0  UNK        0.000000
     49  2        -24.5102  -70.5786   44.8643    2    0  UNK        0.000000
     50  5        -25.6668  -71.0610   44.2790    5    0  UNK        0.000000
     51  2        -23.3937  -70.1730   44.1404    2    0  UNK        0.000000
     52  2        -23.1646  -70.4492   42.8160    2    0  UNK        0.000000
     53  3        -22.9568  -68.6126   48.3509    3    0  UNK        0.000000
     54  2        -22.0355  -68.3152   49.4130    2    0  UNK        0.000000
     55  5        -21.0165  -69.2005   49.5920    5    0  UNK        0.000000
     56  2        -22.1405  -67.1289   50.1228    2    0  UNK        0.000000
     57  2        -21.1976  -66.7105   51.0999    2    0  UNK        0.000000
     58  3        -25.2363  -66.6441   53.9503    3    0  UNK        0.000000
     59  2        -23.9449  -66.9037   54.4538    2    0  UNK        0.000000
     60  5        -23.7392  -68.0768   55.0608    5    0  UNK        0.000000
     61  2        -22.9838  -65.8681   54.3898    2    0  UNK        0.000000
     62  2        -21.6247  -65.9083   54.6483    2    0  UNK        0.000000
     63  6        -31.4996  -69.7802   53.7677    6    0  UNK        0.000000
     64  6        -31.7372  -69.5365   51.8678    6    0  UNK        0.000000
     65  6        -29.4162  -68.7152   53.7536    6    0  UNK        0.000000
     66  6        -30.7937  -68.2363   50.2229    6    0  UNK        0.000000
     67  6        -29.0820  -67.8774   49.6134    6    0  UNK        0.000000
     68  6        -27.9144  -66.3976   53.2715    6    0  UNK        0.000000
     69  6        -28.5454  -65.8759   51.7428    6    0  UNK        0.000000
     70  6        -24.3487  -66.4658   51.9879    6    0  UNK        0.000000
     71  6        -25.3208  -67.8937   52.2529    6    0  UNK        0.000000
     72  6        -25.2856  -65.4967   49.9659    6    0  UNK        0.000000
     73  6        -26.9791  -65.4833   49.6354    6    0  UNK        0.000000
     74  6        -26.6795  -64.3740   53.2296    6    0  UNK        0.000000
     75  6        -27.1619  -64.0457   51.5055    6    0  UNK        0.000000
     76  6        -25.5726  -62.2608   50.1502    6    0  UNK        0.000000
     77  6        -25.7231  -59.6778   51.8527    6    0  UNK        0.000000
     78  6        -25.9905  -59.8186   50.1098    6    0  UNK        0.000000
     79  6        -24.8963  -66.9002   48.2420    6    0  UNK        0.000000
     80  6        -26.5771  -67.2448   47.6607    6    0  UNK        0.000000
     81  6        -23.6777  -70.5141   48.6650    6    0  UNK        0.000000
     82  6        -24.1882  -69.4882   49.9559    6    0  UNK        0.000000
     83  6        -26.2282  -71.0532   48.4640    6    0  UNK        0.000000
     84  6        -27.4691  -69.7946   48.1247    6    0  UNK        0.000000
     85  6        -26.0366  -70.5030   50.6108    6    0  UNK        0.000000
     86  6        -24.6949  -68.3757   46.2026    6    0  UNK        0.000000
     87  6        -26.2226  -69.2337   46.0892    6    0  UNK        0.000000
     88  6        -22.5695  -69.7662   44.7163    6    0  UNK        0.000000
     89  6        -23.7143  -71.2196   42.2862    6    0  UNK        0.000000
     90  6        -22.2070  -70.3487   42.3169    6    0  UNK        0.000000
     91  6        -22.9858  -66.4679   49.9654    6    0  UNK        0.000000
     92  6        -20.2948  -67.2523   51.3602    6    0  UNK        0.000000
     93  6        -21.2648  -65.7093   51.5115    6    0  UNK        0.000000
     94  6        -23.4920  -64.9608   54.0821    6    0  UNK        0.000000
     95  6        -21.1174  -66.7880   55.0291    6    0  UNK        0.000000
     96  6        -20.9729  -65.0423   54.6109    6    0  UNK        0.000000

@<TRIPOS>SUBSTRUCTURE
1 ****        1 TEMP                        0 ****  **** 0 ROOT
