@<TRIPOS>MOLECULE
*****
 96 128 0 0 0
SMALL
GASTEIGER

@<TRIPOS>ATOM
      1 C          19.9649    4.7066    4.9182 C.2     1  UNL1        0.0000
      2 C          21.2413    5.0953    5.0440 C.2     1  UNL1        0.0000
      3 C          21.7484    6.1285    5.9899 C.2     1  UNL1        0.0000
      4 C          20.9391    6.7849    6.8502 C.2     1  UNL1        0.0000
      5 O          23.0888    6.3750    5.9405 O.2     1  UNL1        0.0000
      6 C          23.8024    7.2415    6.7503 C.3     1  UNL1        0.0000
      7 C          25.3151    7.2310    6.3954 C.3     1  UNL1        0.0000
      8 C          25.8792    5.7866    6.4946 C.3     1  UNL1        0.0000
      9 C          26.3786    7.5129    5.0577 C.3     1  UNL1        0.0000
     10 C          26.9434    7.4786    7.5199 C.3     1  UNL1        0.0000
     11 O          28.1544    6.8608    7.2691 O.3     1  UNL1        0.0000
     12 C          29.2656    7.0287    8.0281 C.2     1  UNL1        0.0000
     13 O          29.2481    7.7636    9.0071 O.2     1  UNL1        0.0000
     14 C          30.4985    6.3069    7.6513 C.2     1  UNL1        0.0000
     15 C          31.6379    6.4139    8.3430 C.2     1  UNL1        0.0000
     16 O          25.4310    7.1757    4.0639 O.3     1  UNL1        0.0000
     17 C          26.0443    7.1566    2.7907 C.3     1  UNL1        0.0000
     18 C          24.9825    6.9633    1.6737 C.3     1  UNL1        0.0000
     19 C          24.1587    5.6739    1.9392 C.3     1  UNL1        0.0000
     20 C          24.0314    8.1917    1.6134 C.3     1  UNL1        0.0000
     21 O          23.3094    8.3570    2.8062 O.3     1  UNL1        0.0000
     22 C          25.7250    6.8447    0.3156 C.3     1  UNL1        0.0000
     23 O          24.8291    6.6605   -0.7210 O.3     1  UNL1        0.0000
     24 C          25.1887    6.5238   -2.0217 C.2     1  UNL1        0.0000
     25 O          26.3673    6.5597   -2.3508 O.2     1  UNL1        0.0000
     26 C          24.1306    6.3300   -3.0344 C.2     1  UNL1        0.0000
     27 C          24.3956    6.1866   -4.3374 C.2     1  UNL1        0.0000
     28 O          24.9851    4.5673    1.9903 O.3     1  UNL1        0.0000
     29 C          24.5505    3.3044    2.2256 C.2     1  UNL1        0.0000
     30 O          23.3612    3.0765    2.4048 O.2     1  UNL1        0.0000
     31 C          25.5410    2.2091    2.2668 C.2     1  UNL1        0.0000
     32 C          25.2011    0.9364    2.4966 C.2     1  UNL1        0.0000
     33 O          25.2591    5.1030    7.7238 O.3     1  UNL1        0.0000
     34 C          25.0005    3.8086    8.0354 C.2     1  UNL1        0.0000
     35 O          25.1367    2.9256    7.1983 O.2     1  UNL1        0.0000
     36 C          24.5501    3.4841    9.4045 C.2     1  UNL1        0.0000
     37 C          24.2725    2.2361    9.7965 C.2     1  UNL1        0.0000
     38 H          19.4465    6.9794    4.0841 H       1  UNL1        0.0000
     39 H          19.4901    8.2113    5.4659 H       1  UNL1        0.0000
     40 H          21.7483    6.4775    4.3277 H       1  UNL1        0.0000
     41 H          20.7925    9.0993    6.9432 H       1  UNL1        0.0000
     42 H          22.4923    9.1903    7.6204 H       1  UNL1        0.0000
     43 H          24.2552    7.5191    7.8585 H       1  UNL1        0.0000
     44 H          24.6960    8.8877    6.7668 H       1  UNL1        0.0000
     45 H          26.6413    5.0209    6.2250 H       1  UNL1        0.0000
     46 H          24.9303    5.2325    5.7166 H       1  UNL1        0.0000
     47 H          27.3578    7.0105    4.8700 H       1  UNL1        0.0000
     48 H          26.5366    8.6148    5.0503 H       1  UNL1        0.0000
     49 H          26.5945    7.1930    8.5376 H       1  UNL1        0.0000
     50 H          27.0840    8.5829    7.5025 H       1  UNL1        0.0000
     51 H          30.4756    5.6637    6.7765 H       1  UNL1        0.0000
     52 H          31.7100    7.0441    9.2242 H       1  UNL1        0.0000
     53 H          31.7160    9.4328    7.8444 H       1  UNL1        0.0000
     54 H          26.4588    6.7750    2.7016 H       1  UNL1        0.0000
     55 H          25.4468    8.2647    2.4669 H       1  UNL1        0.0000
     56 H          23.8794    4.3989    1.2182 H       1  UNL1        0.0000
     57 H          23.9557    4.8029    2.9678 H       1  UNL1        0.0000
     58 H          22.5710    6.5534    0.7492 H       1  UNL1        0.0000
     59 H          23.2231    8.1306    1.2459 H       1  UNL1        0.0000
     60 H          22.4908    7.7965    3.2188 H       1  UNL1        0.0000
     61 H          26.3239    6.1995    0.3249 H       1  UNL1        0.0000
     62 H          25.3689    7.6966    0.0260 H       1  UNL1        0.0000
     63 H          23.2471    4.7129   -2.6470 H       1  UNL1        0.0000
     64 H          25.3300    5.6229   -4.7092 H       1  UNL1        0.0000
     65 H          23.7993    4.5892   -4.9804 H       1  UNL1        0.0000
     66 H          28.1512    3.2748    2.2561 H       1  UNL1        0.0000
     67 H          26.8909    0.5685    2.9684 H       1  UNL1        0.0000
     68 H          28.6989    1.0006    2.7982 H       1  UNL1        0.0000
     69 H          24.4406    4.2939   10.1197 H       1  UNL1        0.0000
     70 H          24.3667    1.3939    9.1180 H       1  UNL1        0.0000
     71 H          23.9446    2.0496   10.8141 H       1  UNL1        0.0000
     72 CU         10.8723    3.9588    7.3103 Cu      2  UNL2        0.0000
     73 CU         12.9553    2.7381    8.3254 Cu      2  UNL2        0.0000
     74 CU         11.6420    3.6269    4.7992 Cu      2  UNL2        0.0000
     75 CU         10.2462    1.7213    6.0947 Cu      2  UNL2        0.0000
     76 CU         12.3189    0.6178    7.1206 Cu      2  UNL2        0.0000
     77 CU         13.8208    2.5002    5.9118 Cu      2  UNL2        0.0000
     78 CU         13.0752    3.1030    2.8156 Cu      2  UNL2        0.0000
     79 CU         11.2218    1.4487    3.6381 Cu      2  UNL2        0.0000
     80 CU         13.2334    0.3084    4.7189 Cu      2  UNL2        0.0000
     81 CU         15.0681    1.8718    3.8420 Cu      2  UNL2        0.0000
     82 CU         13.4349    3.0764    0.3188 Cu      2  UNL2        0.0000
     83 CU         12.3201    1.0116    1.3795 Cu      2  UNL2        0.0000
     84 CU         14.4052   -0.1242    2.3375 Cu      2  UNL2        0.0000
     85 CU         15.6704    1.9268    1.2810 Cu      2  UNL2        0.0000
     86 CU         15.0332    2.7562   -1.5891 Cu      2  UNL2        0.0000
     87 CU         13.3522    0.8553   -0.9536 Cu      2  UNL2        0.0000
     88 CU         15.2904   -0.4237    0.0631 Cu      2  UNL2        0.0000
     89 CU         16.9983    1.3795   -0.9671 Cu      2  UNL2        0.0000
     90 CU         15.3815    3.4519   -3.8982 Cu      2  UNL2        0.0000
     91 CU         14.3662    1.0171   -3.4350 Cu      2  UNL2        0.0000
     92 CU         16.7558   -0.0467   -3.1567 Cu      2  UNL2        0.0000
     93 CU         17.8450    2.3579   -3.3467 Cu      2  UNL2        0.0000
     94 CU         17.0222    3.2198   -5.5992 Cu      2  UNL2        0.0000
     95 CU         14.9549    1.7937   -5.8371 Cu      2  UNL2        0.0000
     96 CU         17.3873    0.7591   -5.4833 Cu      2  UNL2        0.0000
@<TRIPOS>BOND
     1    95    94    1
     2    95    96    1
     3    95    90    1
     4    95    91    1
     5    94    96    1
     6    94    90    1
     7    94    93    1
     8    96    93    1
     9    96    92    1
    10    65    27    1
    11    64    27    1
    12    90    91    1
    13    90    93    1
    14    90    86    1
    15    27    26    2
    16    91    92    1
    17    91    86    1
    18    91    87    1
    19    93    92    1
    20    93    89    1
    21    92    89    1
    22    26    63    1
    23    26    24    1
    24    25    24    2
    25    24    23    1
    26    86    89    1
    27    86    87    1
    28    86    82    1
    29    86    85    1
    30    89    88    1
    31    89    85    1
    32    87    88    1
    33    87    82    1
    34    87    83    1
    35    23    22    1
    36    88    85    1
    37    88    84    1
    38    82    85    1
    39    82    83    1
    40    82    78    1
    41    62    22    1
    42    22    61    1
    43    22    18    1
    44    58    20    1
    45    85    84    1
    46    85    81    1
    47    83    84    1
    48    83    78    1
    49    83    79    1
    50    56    19    1
    51    59    20    1
    52    20    18    1
    53    20    21    1
    54    18    19    1
    55    18    17    1
    56    84    81    1
    57    84    80    1
    58    19    28    1
    59    19    57    1
    60    28    29    1
    61    66    31    1
    62    29    31    1
    63    29    30    2
    64    78    79    1
    65    78    81    1
    66    78    74    1
    67    31    32    2
    68    55    17    1
    69    54    17    1
    70    17    16    1
    71    21    60    1
    72    32    68    1
    73    32    67    1
    74    79    80    1
    75    79    74    1
    76    79    75    1
    77    81    80    1
    78    81    77    1
    79    16     9    1
    80    38     1    1
    81    80    77    1
    82    80    76    1
    83    74    77    1
    84    74    75    1
    85    74    72    1
    86    40     2    1
    87    47     9    1
    88    48     9    1
    89     1     2    2
    90     1    39    1
    91     9     7    1
    92     2     3    1
    93    77    76    1
    94    77    73    1
    95    75    76    1
    96    75    72    1
    97    46     8    1
    98     5     3    1
    99     5     6    1
   100     3     4    2
   101    45     8    1
   102     7     8    1
   103     7     6    1
   104     7    10    1
   105     8    33    1
   106    44     6    1
   107    51    14    1
   108    76    73    1
   109     6    43    1
   110     4    41    1
   111     4    42    1
   112    72    73    1
   113    11    10    1
   114    11    12    1
   115    50    10    1
   116    35    34    2
   117    10    49    1
   118    14    12    1
   119    14    15    2
   120    33    34    1
   121    53    15    1
   122    12    13    2
   123    34    36    1
   124    15    52    1
   125    70    37    1
   126    36    37    2
   127    36    69    1
   128    37    71    1
